data_MoS2\(2)
_audit_creation_date              2016-05-27
_audit_creation_method            'Materials Studio'
_symmetry_space_group_name_H-M    'P1'
_symmetry_Int_Tables_number       1
_symmetry_cell_setting            triclinic
loop_
_symmetry_equiv_pos_as_xyz
  x,y,z
_cell_length_a                    6.3000
_cell_length_b                    6.3000
_cell_length_c                    14.0000
_cell_angle_alpha                 90.0000
_cell_angle_beta                  90.0000
_cell_angle_gamma                 120.0000
loop_
_atom_site_label
_atom_site_type_symbol
_atom_site_fract_x
_atom_site_fract_y
_atom_site_fract_z
_atom_site_U_iso_or_equiv
_atom_site_adp_type
_atom_site_occupancy
Mo1    Mo    0.16667   0.33333   0.44983   0.00000  Uiso   1.00
S2     S     0.33333   0.16667   0.33649   0.00000  Uiso   1.00
S3     S     0.33333   0.16667   0.56317   0.00000  Uiso   1.00
Mo4    Mo    0.66667   0.33333   0.44983   0.00000  Uiso   1.00
S5     S     0.83333   0.16667   0.33649   0.00000  Uiso   1.00
S6     S     0.83333   0.16667   0.56317   0.00000  Uiso   1.00
Mo7    Mo    0.16667   0.83333   0.44983   0.00000  Uiso   1.00
S8     S     0.33333   0.66667   0.33649   0.00000  Uiso   1.00
S9     S     0.33333   0.66667   0.56317   0.00000  Uiso   1.00
Mo10   Mo    0.66667   0.83333   0.44983   0.00000  Uiso   1.00
S11    S     0.83333   0.66667   0.33649   0.00000  Uiso   1.00
S12    S     0.83333   0.66667   0.56317   0.00000  Uiso   1.00
loop_
_geom_bond_atom_site_label_1
_geom_bond_atom_site_label_2
_geom_bond_distance
_geom_bond_site_symmetry_2
_ccdc_geom_bond_type
Mo1    Mo4     3.150   1_455 S
Mo1    Mo10    3.150   .     S
Mo1    Mo10    3.150   1_445 S
Mo1    Mo7     3.150   .     S
Mo1    Mo7     3.150   1_545 S
Mo1    S8      2.414   .     S
Mo1    S5      2.414   1_455 S
Mo1    S2      2.414   .     S
Mo1    S3      2.414   .     S
Mo1    S9      2.414   .     S
Mo1    S6      2.414   1_455 S
S2     Mo7     2.414   1_545 S
S2     Mo4     2.414   .     S
S3     Mo7     2.414   1_545 S
S3     Mo4     2.414   .     S
Mo4    Mo1     3.150   1_655 S
Mo4    Mo7     3.150   1_655 S
Mo4    Mo7     3.150   1_545 S
Mo4    Mo10    3.150   .     S
Mo4    Mo10    3.150   1_545 S
Mo4    S11     2.414   .     S
Mo4    S5      2.414   .     S
Mo4    S6      2.414   .     S
Mo4    S12     2.414   .     S
S5     Mo10    2.414   1_545 S
S5     Mo1     2.414   1_655 S
S6     Mo10    2.414   1_545 S
S6     Mo1     2.414   1_655 S
Mo7    Mo10    3.150   1_455 S
Mo7    Mo4     3.150   1_565 S
Mo7    Mo4     3.150   1_455 S
Mo7    Mo1     3.150   1_565 S
Mo7    S2      2.414   1_565 S
Mo7    S11     2.414   1_455 S
Mo7    S8      2.414   .     S
Mo7    S9      2.414   .     S
Mo7    S3      2.414   1_565 S
Mo7    S12     2.414   1_455 S
S8     Mo10    2.414   .     S
S9     Mo10    2.414   .     S
Mo10   Mo7     3.150   1_655 S
Mo10   Mo1     3.150   1_665 S
Mo10   Mo4     3.150   1_565 S
Mo10   S5      2.414   1_565 S
Mo10   S11     2.414   .     S
Mo10   S12     2.414   .     S
Mo10   S6      2.414   1_565 S
S11    Mo7     2.414   1_655 S
S12    Mo7     2.414   1_655 S
